! B3LYP D3BJ def2-TZVP TightSCF Opt

%pal
  nprocs 24
end

* xyz 0 1

O     -3.9875083044    0.0553772574   -4.9116431456
P     -5.0347789318   -0.8205037293   -4.0756570123
H     -3.5435318942    0.6556846768   -4.2836401004
O     -6.2176524643    0.2139373204   -3.9385941594
O     -4.3057464250   -1.1865599943   -2.8092407873
P     -7.6262885260    0.0439403634   -3.1952195359
O     -8.4395561653    1.1496167755   -4.0191616067
O     -7.4831608059    0.4811420879   -1.7705199694
P     -9.4386958780    1.0024264267   -5.2287156516
O     -9.1430458679    2.3690301679   -6.0171921729
O    -10.8959164328    1.1288408895   -4.8538593630
H     -9.5563636226    3.0899048816   -5.5043943522
O     -5.4003048282   -2.0223789296   -4.9380018004
O     -8.1822086295   -1.3304042442   -3.5390117111
O     -9.1720751105   -0.1290308076   -6.2174355715
N     -4.0748176311   -3.5200710015   -3.2796939886
N     -7.7500601306   -2.1121299506   -5.7402502129
N    -11.7601687405   -0.1857597555   -6.6473421410
H     -4.0429555674   -2.6018390632   -2.7517919710
H     -3.1236757670   -3.7421750561   -3.5532997376
H     -4.5722697999   -4.1926559683   -2.7072544988
H     -4.6383707067   -3.2207732909   -4.1083396649
H     -8.0431559682   -2.0059773198   -4.7351852839
H     -8.1699154008   -1.2536771648   -6.1556159401
H     -8.0893075013   -2.9797768849   -6.1141166378
H     -6.7142272125   -2.0416064156   -5.6642007513
H    -10.7367734661   -0.3710142216   -6.7691756832
H    -11.7243720079    0.3869155116   -5.7546335862
H    -12.2856748237   -1.0327072256   -6.4630229081
H    -12.1009901020    0.4312597294   -7.3781726441
