! B3LYP D3BJ def2-TZVP TightSCF Opt

%pal
  nprocs 24
end

* xyz 0 1
C      2.2282370000   -0.4700470000    0.5883690000
O      1.3964480000   -0.3474530000   -0.2630930000
O      1.9677420000   -0.8142350000    1.7272480000
O      3.2846050000    0.1312590000    0.6301270000
C     -1.3252370000   -1.4378670000   -2.1337790000
O     -1.5198560000   -2.6115900000   -2.3785550000
O     -1.2145470000   -1.0296640000   -0.9884010000
O     -0.5502950000   -0.7194960000   -2.7358480000
C      0.7491220000    2.2820720000    1.7996070000
O      0.2898580000    1.6994920000    0.8389090000
O      0.4312030000    1.9504110000    2.9339890000
O      1.8939980000    2.7046900000    1.8510450000
O      2.5432170000    1.0453920000    4.8029410000
O     -0.1191770000   -2.2115460000    1.0359410000
O      0.1331570000    1.5490920000   -3.4251460000
O      1.7312780000   -3.1943560000   -1.5385330000
O      2.2789280000    2.0990230000   -1.3315400000
Mg     0.7195250000    0.8510280000   -1.6785220000
Mg     2.9915080000    2.0187660000    0.4456030000
Mg     0.0068170000   -2.8830980000   -1.3055490000
Mg     0.4565470000    0.1593850000    2.3909760000
H      3.1144940000    0.6170840000    4.1466860000
H      2.1315300000    1.7901940000    4.3087950000
H      0.8292280000   -2.2841060000    1.3175200000
H     -0.0758070000   -1.4050580000    0.4546530000
H      0.4463110000    1.0836260000   -4.2402970000
H     -0.7883570000    1.1616400000   -3.4566270000
H      2.6543730000   -3.0125000000   -1.6634070000
H      3.0047430000    2.2651390000   -1.9204260000
