! B3LYP D3BJ def2-TZVP TightSCF Opt RIJCOSX
%geom
  MaxIter 500
* xyz 0 1
  C       7.536364      3.190469      0.277905
  C       6.705369      2.287158     -0.634792
  H       7.664294      2.731632      1.262701
  H       8.530241      3.369950     -0.134790
  H       7.051331      4.158242      0.423527
  C       7.434471      0.957026     -0.877194
  H      10.681951      2.765365     -1.010129
  C       5.293709      2.118269     -0.071066
  C       6.741960     -0.018030     -1.853673
  H       7.596806      0.457128      0.085172
  H       8.431408      1.196636     -1.257583
  C       7.771981     -0.655960     -2.800008
  H       4.828940      3.092522      0.096182
  C       5.909348     -1.064100     -1.106583
  C       7.192237     -1.554221     -3.915644
  H       8.333698      0.161988     -3.259425
  H       8.499390     -1.218432     -2.203417
  C       7.891920     -1.297708     -5.262836
  H       5.307490     -1.666568     -1.787888
  C       7.206800     -3.038127     -3.536671
  C       9.389750     -1.679999     -5.316259
  H       7.781990     -0.234277     -5.494196
  H       7.353700     -1.833424     -6.051457
  C      10.223608     -0.574903     -5.986603
  H       8.226929     -3.390092     -3.368864
  C       9.592963     -3.021750     -6.027075
  C      11.756528     -0.708457     -5.860728
  H       9.945805     -0.548553     -7.046150
  H       9.923729      0.395500     -5.577986
  C      12.324352      0.124208     -4.700497
  H      10.639582     -3.331380     -6.025469
  C      12.448467     -0.302239     -7.164421
  C      11.790158     -0.172878     -3.293339
  H      13.414829      0.009839     -4.687861
  H      12.134598      1.180035     -4.927363
  C      12.268343      0.915627     -2.320619
  H      12.118222     -0.928526     -7.995850
  C      12.159003     -1.583611     -2.833029
  C      11.696227      0.843564     -0.889282
  H      13.364054      0.908088     -2.276441
  H      11.993684      1.879887     -2.758300
  C      11.387069      2.245009     -0.358874
  H      11.688586     -1.830752     -1.880963
  C      12.627256      0.114092      0.083261
  H      10.954340      2.206440      0.643247
  H      12.298124      2.848367     -0.306550
  H       6.615630      2.785761     -1.608460
  H       4.646394      1.557048     -0.745715
  H       5.317575      1.593408      0.888408
  H       6.058669      0.567104     -2.482384
  H       6.561310     -1.739728     -0.545801
  H       5.230191     -0.596079     -0.394898
  H       6.145405     -1.260616     -4.058075
  H       6.647194     -3.223375     -2.620667
  H       6.767327     -3.650607     -4.327341
  H       9.744875     -1.791431     -4.289945
  H       9.014667     -3.816277     -5.555530
  H       9.269973     -2.949480     -7.069536
  H      12.002497     -1.758582     -5.681765
  H      12.218213      0.736540     -7.418874
  H      13.534290     -0.391378     -7.083931
  H      10.698659     -0.103327     -3.322914
  H      11.840680     -2.335997     -3.554910
  H      13.241415     -1.680190     -2.709491
  H      10.749151      0.292875     -0.932301
  H      13.566845      0.663674      0.190762
  H      12.174435      0.034832      1.074425
  H      12.871488     -0.892308     -0.255273
  *
