68
Coordinates from ORCA-job 20250918/PP_15C/opt/PP_15C E -865.869402626636
  C           7.53636354629794      3.19046861804896      0.27790451574264
  C           6.70536870126879      2.28715752092697     -0.63479242394237
  H           7.66429366486020      2.73163193271110      1.26270121858270
  H           8.53024115411454      3.36994992183241     -0.13478998006571
  H           7.05133087587691      4.15824152404679      0.42352678665558
  C           7.43447079629625      0.95702556312829     -0.87719400217256
  H          10.68195134519850      2.76536523349744     -1.01012917125659
  C           5.29370946754812      2.11826880631579     -0.07106616014525
  C           6.74195993515010     -0.01803031005390     -1.85367278388102
  H           7.59680625352712      0.45712787295093      0.08517197811955
  H           8.43140800273095      1.19663619315169     -1.25758305969134
  C           7.77198098872710     -0.65595956560659     -2.80000832713051
  H           4.82894033109212      3.09252224129018      0.09618172649539
  C           5.90934828414369     -1.06410046090663     -1.10658267404828
  C           7.19223679842646     -1.55422095597332     -3.91564399230671
  H           8.33369750734918      0.16198839119813     -3.25942537755737
  H           8.49938962971094     -1.21843194421617     -2.20341692591717
  C           7.89192001108347     -1.29770788916825     -5.26283569860588
  H           5.30748976506556     -1.66656779599156     -1.78788751778824
  C           7.20680029961310     -3.03812653303644     -3.53667051108089
  C           9.38975000740440     -1.67999891506664     -5.31625855106832
  H           7.78198974878422     -0.23427748452282     -5.49419632201630
  H           7.35369957966320     -1.83342376453375     -6.05145736584060
  C          10.22360835930229     -0.57490265388921     -5.98660308392883
  H           8.22692888673781     -3.39009172187404     -3.36886432405806
  C           9.59296260102688     -3.02175026737088     -6.02707471344097
  C          11.75652758859796     -0.70845714108225     -5.86072814673545
  H           9.94580516867211     -0.54855296068724     -7.04614996607240
  H           9.92372922420655      0.39549993366964     -5.57798603342134
  C          12.32435186864826      0.12420848618481     -4.70049731938823
  H          10.63958230985093     -3.33138033397531     -6.02546927150789
  C          12.44846662912124     -0.30223930857861     -7.16442120514074
  C          11.79015845141988     -0.17287762187312     -3.29333862454530
  H          13.41482906169358      0.00983881128254     -4.68786145578286
  H          12.13459781562768      1.18003471075216     -4.92736272768328
  C          12.26834300007665      0.91562678956057     -2.32061860954285
  H          12.11822174241115     -0.92852582605826     -7.99585034887028
  C          12.15900295371754     -1.58361116036002     -2.83302875176240
  C          11.69622657013929      0.84356405064858     -0.88928165354255
  H          13.36405404397925      0.90808765639738     -2.27644079915641
  H          11.99368383930195      1.87988732241643     -2.75829964767149
  C          11.38706900476632      2.24500881006291     -0.35887437569219
  H          11.68858584430065     -1.83075211010676     -1.88096319760954
  C          12.62725608818163      0.11409155467972      0.08326084561693
  H          10.95433977589923      2.20644016418062      0.64324710647807
  H          12.29812428744869      2.84836714655849     -0.30655031274133
  H           6.61562982095459      2.78576071411556     -1.60845982632973
  H           4.64639406819052      1.55704839247311     -0.74571461375719
  H           5.31757486243853      1.59340845232571      0.88840827763138
  H           6.05866887954218      0.56710368909911     -2.48238407149366
  H           6.56130957445371     -1.73972787105717     -0.54580076652790
  H           5.23019099366310     -0.59607928634599     -0.39489776007304
  H           6.14540505233262     -1.26061631986507     -4.05807452576645
  H           6.64719421153454     -3.22337503434327     -2.62066725794207
  H           6.76732725830240     -3.65060657150440     -4.32734128741310
  H           9.74487505690137     -1.79143083790179     -4.28994518099946
  H           9.01466675401380     -3.81627695815626     -5.55553002202097
  H           9.26997297070616     -2.94948004092245     -7.06953590515280
  H          12.00249675507918     -1.75858197912244     -5.68176452935639
  H          12.21821292621773      0.73654016855514     -7.41887362842871
  H          13.53429015784400     -0.39137795434408     -7.08393074876479
  H          10.69865868421710     -0.10332738563311     -3.32291399576875
  H          11.84068040435659     -2.33599650144989     -3.55491040699474
  H          13.24141468487193     -1.68018958600440     -2.70949092155742
  H          10.74915145995649      0.29287503428994     -0.93230149790762
  H          13.56684545052535      0.66367368733431      0.19076217678555
  H          12.17443452184047      0.03483158329673      1.07442483589009
  H          12.87148757979519     -0.89230812560000     -0.25527275593293
