! GFN2-xTB Opt
* xyz 0 1
  C      -1.262672     -1.484800     -0.709031
  O      -0.551985     -0.398871     -1.065524
  O      -1.883972     -2.045336     -1.692629
  O      -1.148844     -1.962438      0.435755
  C       2.219532     -0.444199      2.322430
  O       2.825534      0.441719      3.038722
  O       1.231171      0.015559      1.534228
  O       2.487147     -1.667581      2.321069
  C       0.873437      2.872691      0.498534
  O       0.004773      2.622420     -0.378125
  O       0.692369      3.380244      1.665707
  O       2.088327      2.313925      0.311346
  C       1.672045     -1.362943     -2.063544
  O       1.357818     -0.821518     -3.189147
  O       1.173778     -2.531455     -1.801845
  O       2.248123     -0.701749     -1.122646
  Mg      1.926326      1.945602      2.261466
  Mg     -0.459418     -1.397196     -2.855365
  Mg      0.996000      0.779333     -0.497411
  Ca      1.136298     -2.191500      0.566731
*
--
! B3LYP D3BJ def2-SVP Opt RIJCOSX
%geom
  MaxIter 500
end
--
! B3LYP D3BJ def2-TZVP TightSCF Opt RIJCOSX
%geom
  MaxIter 500
end
