30
Coordinates from ORCA-job 20250918/APP_4mer/opt/APP_4mer E -1949.359442554800
O     -3.6243560000    0.1090960000   -4.4135590000
P     -4.7215620000   -0.9988360000   -4.7690890000
H     -3.3644910000    0.0768460000   -3.4860820000
O     -6.0917750000   -0.2014910000   -4.3434310000
O     -4.5654020000   -2.1632440000   -3.8270040000
P     -7.6288230000   -0.6317130000   -4.2435080000
O     -8.3163610000    0.8144860000   -4.5154460000
O     -7.9718970000   -1.0070330000   -2.8321610000
P     -9.1496820000    1.3568430000   -5.7769710000
O     -9.2680250000    2.9131220000   -5.4800710000
O    -10.5824250000    0.7867640000   -5.5880200000
H     -9.8436010000    3.1120470000   -4.7322200000
O     -4.7057160000   -1.2067900000   -6.2374050000
O     -8.0053400000   -1.6036420000   -5.3139900000
O     -8.4860920000    1.1446790000   -7.0715970000
N     -6.3529740000   -3.0074870000   -2.2284990000
N     -6.8902200000   -0.9674270000   -7.6727840000
N    -10.7714070000   -1.3745900000   -4.1451770000
H     -5.5364570000   -2.7041170000   -2.9212420000
H     -6.0240650000   -3.0672770000   -1.2707800000
H     -7.0932170000   -2.2441050000   -2.3347540000
H     -6.7481190000   -3.9000580000   -2.5091880000
H     -7.4741510000   -1.4773230000   -6.9796290000
H     -7.3121490000   -0.0203810000   -7.6904470000
H     -6.8789900000   -1.3979470000   -8.5893480000
H     -5.9254040000   -0.9615220000   -7.2247230000
H    -10.3723630000   -2.0934540000   -4.7413330000
H    -10.6768760000   -0.0709000000   -4.9962310000
H    -10.1658920000   -1.3105240000   -3.3279040000
H    -11.7057390000   -1.6449860000   -3.8617890000
