68
Coordinates from ORCA-job 20250918/PP_15C/opt/PP_15C E -865.836209990250
C      7.5363640000    3.1904690000    0.2779050000
C      6.7053690000    2.2871580000   -0.6347920000
H      7.6642940000    2.7316320000    1.2627010000
H      8.5302410000    3.3699500000   -0.1347900000
H      7.0513310000    4.1582420000    0.4235270000
C      7.4344710000    0.9570260000   -0.8771940000
H     10.6819510000    2.7653650000   -1.0101290000
C      5.2937090000    2.1182690000   -0.0710660000
C      6.7419600000   -0.0180300000   -1.8536730000
H      7.5968060000    0.4571280000    0.0851720000
H      8.4314080000    1.1966360000   -1.2575830000
C      7.7719810000   -0.6559600000   -2.8000080000
H      4.8289400000    3.0925220000    0.0961820000
C      5.9093480000   -1.0641000000   -1.1065830000
C      7.1922370000   -1.5542210000   -3.9156440000
H      8.3336980000    0.1619880000   -3.2594250000
H      8.4993900000   -1.2184320000   -2.2034170000
C      7.8919200000   -1.2977080000   -5.2628360000
H      5.3074900000   -1.6665680000   -1.7878880000
C      7.2068000000   -3.0381270000   -3.5366710000
C      9.3897500000   -1.6799990000   -5.3162590000
H      7.7819900000   -0.2342770000   -5.4941960000
H      7.3537000000   -1.8334240000   -6.0514570000
C     10.2236080000   -0.5749030000   -5.9866030000
H      8.2269290000   -3.3900920000   -3.3688640000
C      9.5929630000   -3.0217500000   -6.0270750000
C     11.7565280000   -0.7084570000   -5.8607280000
H      9.9458050000   -0.5485530000   -7.0461500000
H      9.9237290000    0.3955000000   -5.5779860000
C     12.3243520000    0.1242080000   -4.7004970000
H     10.6395820000   -3.3313800000   -6.0254690000
C     12.4484670000   -0.3022390000   -7.1644210000
C     11.7901580000   -0.1728780000   -3.2933390000
H     13.4148290000    0.0098390000   -4.6878610000
H     12.1345980000    1.1800350000   -4.9273630000
C     12.2683430000    0.9156270000   -2.3206190000
H     12.1182220000   -0.9285260000   -7.9958500000
C     12.1590030000   -1.5836110000   -2.8330290000
C     11.6962270000    0.8435640000   -0.8892820000
H     13.3640540000    0.9080880000   -2.2764410000
H     11.9936840000    1.8798870000   -2.7583000000
C     11.3870690000    2.2450090000   -0.3588740000
H     11.6885860000   -1.8307520000   -1.8809630000
C     12.6272560000    0.1140920000    0.0832610000
H     10.9543400000    2.2064400000    0.6432470000
H     12.2981240000    2.8483670000   -0.3065500000
H      6.6156300000    2.7857610000   -1.6084600000
H      4.6463940000    1.5570480000   -0.7457150000
H      5.3175750000    1.5934080000    0.8884080000
H      6.0586690000    0.5671040000   -2.4823840000
H      6.5613100000   -1.7397280000   -0.5458010000
H      5.2301910000   -0.5960790000   -0.3948980000
H      6.1454050000   -1.2606160000   -4.0580750000
H      6.6471940000   -3.2233750000   -2.6206670000
H      6.7673270000   -3.6506070000   -4.3273410000
H      9.7448750000   -1.7914310000   -4.2899450000
H      9.0146670000   -3.8162770000   -5.5555300000
H      9.2699730000   -2.9494800000   -7.0695360000
H     12.0024970000   -1.7585820000   -5.6817650000
H     12.2182130000    0.7365400000   -7.4188740000
H     13.5342900000   -0.3913780000   -7.0839310000
H     10.6986590000   -0.1033270000   -3.3229140000
H     11.8406800000   -2.3359970000   -3.5549100000
H     13.2414150000   -1.6801900000   -2.7094910000
H     10.7491510000    0.2928750000   -0.9323010000
H     13.5668450000    0.6636740000    0.1907620000
H     12.1744350000    0.0348320000    1.0744250000
H     12.8714880000   -0.8923080000   -0.2552730000
