
! B3LYP D3BJ def2-TZVP TightSCF Opt

%pal
  nprocs 24
end

* xyz 0 1
C      1.2315679419    0.0535719847   -0.1313117260
C      2.1036036741   -0.5736326298   -1.2261107515
H      1.2430801553   -0.5547375231    0.7795633139
H      1.5853576737    1.0577252959    0.1240453088
H      0.1915932792    0.1461057183   -0.4634386006
C      3.5733411117   -0.6184119599   -0.7492305773
H     17.2651089649    3.2910128904   -2.9910297151
C      1.5240186793   -1.9330885673   -1.6078492279
C      4.6176526340   -1.0535086339   -1.8086334056
H      3.6615959576   -1.2497731370    0.1440238864
H      3.8187779950    0.4022122116   -0.4248002336
C      6.0212512905   -0.4667808729   -1.4711205310
H      0.4346813738   -1.8811187372   -1.7180207494
C      4.7352520491   -2.5809881555   -1.8985243478
C      6.7191404805    0.2353060132   -2.6621901767
H      5.9322569832    0.2764585344   -0.6679606320
H      6.6637191917   -1.2496470556   -1.0576854227
C      8.0805096534    0.8624677890   -2.2669213377
H      5.5898130531   -2.8802096441   -2.5137004019
C      6.7678951933   -0.5785717674   -3.9557420382
C      9.4093650011    0.0445034206   -2.1817215255
H      7.9479193912    1.3613670207   -1.2959023203
H      8.2356396577    1.7002707461   -2.9620476912
C     10.4862947681    0.7444980809   -3.0677015270
H      7.0378882267   -1.6215731042   -3.7815439594
C      9.3164277332   -1.4626171874   -2.3814592952
C     11.8225328541   -0.0061711110   -3.3227613162
H     10.0466440877    1.0108325033   -4.0382683853
H     10.7072082668    1.7004445147   -2.5728701251
C     12.9294633522    1.0012147506   -3.7332244217
H     10.2423801067   -1.9510918791   -2.0582427320
C     11.6294483903   -1.0594727744   -4.4326639376
C     14.4038596774    0.5783572723   -3.4583637235
H     12.8058700959    1.2563369619   -4.7943454407
H     12.7777805446    1.9406741731   -3.1847480764
C     15.3363121400    1.6320287308   -4.1178584245
H     11.5953642390   -2.0680869019   -4.0082709519
C     14.7416433338   -0.8523386857   -3.8695147554
C     16.8564444733    1.3899892984   -3.9766999144
H     15.0823795605    1.7294824048   -5.1816198402
H     15.0881662641    2.5999191498   -3.6606821506
C     17.5952031903    2.7302500126   -3.8720744774
H     15.7512652918   -1.1288092316   -3.5506181957
C     17.4287256770    0.6188316032   -5.1731729994
H     18.6754478416    2.5744161451   -3.7795554614
H     17.4172765479    3.3514922448   -4.7570666205
H      2.0427652935    0.0782910457   -2.1078550638
H      1.9146532935   -2.2640149647   -2.5728500267
H      1.7490123771   -2.6923050489   -0.8516236134
H      4.2871475622   -0.6649626906   -2.7781578518
H      4.8709601356   -3.0273611431   -0.9066262096
H      3.8553866736   -3.0361994633   -2.3528065338
H      6.0763926794    1.0992607893   -2.8943580296
H      5.7892306073   -0.5856883901   -4.4477370123
H      7.4768102273   -0.1459163620   -4.6693179591
H      9.7665611008    0.1671763772   -1.1478585409
H      8.5250717536   -1.9068426112   -1.7767681768
H      9.1537627468   -1.7321600786   -3.4265178922
H     12.1353680181   -0.4876439851   -2.3885240652
H     10.7019462256   -0.9027170136   -4.9933209547
H     12.4327684527   -1.0496402902   -5.1738763272
H     14.5590040579    0.6380131256   -2.3719591804
H     14.0766579642   -1.5763142286   -3.3900399436
H     14.6785878195   -0.9801545955   -4.9542166334
H     17.0563936312    0.8276260490   -3.0568415327
H     17.2691349757    1.1670725301   -6.1084530385
H     18.5073838932    0.4684642685   -5.0547175372
H     16.9763163997   -0.3682034323   -5.2880338897
*