53
Coordinates from ORCA-job APP/APP_opt E -3670.641174858407
  P           6.01720262649240     -2.29185619682961      4.22656369081429
  O           6.59676324888123     -3.68528735469741      4.33298365256276
  O           4.62600228775240     -2.30451059264858      5.01626933505502
  P           4.86660132900656     -1.46256717125362      1.39279666730197
  O           4.90001793527824     -0.04354816724242      1.85501907480970
  O           3.58359361786871     -1.91279459895311      0.64426717823848
  P           6.42215809968353     -2.21068990750865     -1.10181801347230
  O           5.66050144166970     -1.69127866217791     -2.24475450827185
  O           6.34439014244713     -3.74892560905602     -0.84070405429500
  P           9.24401605057505     -2.46948449028209     -0.42508470571914
  O           9.76594866367722     -3.63826553021115     -1.15813698407965
  O           8.90152367015887     -2.51810691912711      1.03105849119946
  P          10.93926620652482     -0.19792168108300      0.36617839108070
  O          11.98784341022317     -0.88575180796757      1.17090909402889
  O           9.99713297877361      0.75597393630859      0.99127206840891
  P          13.05117457712628      1.42745363327257     -1.06177623354463
  O          13.11171676542762      2.28421799009003     -2.23100587481322
  O          14.09498501157252      1.18546767466238     -0.05606217549885
  O           5.23372963889345     -2.53359509971810      2.41402915590761
  O           6.07995112047275     -1.54235508028279      0.28302372636449
  O           7.97216768789390     -1.84836733020162     -1.24897254995258
  O          10.27212146365516     -1.21495595911965     -0.64850641562195
  O          11.71786794453555      0.69321394171286     -0.85141184884786
  N           3.56022255222619      0.21320531271017      4.53766738062882
  H           3.84461622762239      0.27852057020888      3.55678424748774
  H           4.17136143187331     -1.40847222831200      4.95847278987175
  H           2.55152580137390      0.30443842707117      4.58299880735416
  H           3.95920935683460      1.00303799487987      5.03397234387233
  N           3.11429860328637     -0.49292486748050     -1.47506018249644
  H           2.46513621822257     -0.93540114380614     -2.11481324426343
  H           3.32102606491030     -1.30040033844171     -0.17499200404994
  H           2.85063694309877      0.48056657269362     -1.37677221582492
  H           4.03942245484914     -0.56780167642667     -1.90699860849301
  N           7.70697232068130     -4.84040653462313     -2.72890912364386
  H           8.62551465517384     -4.50799909826860     -2.40146012577179
  H           6.83797124563424     -4.29977601727728     -1.61041564582640
  H           7.75704589366228     -5.83651567831480     -2.90473722288180
  H           7.48145254805310     -4.37436201475831     -3.59996133264765
  N           7.26704630485102     -4.53189877227522      2.00411496859957
  H           6.98243907625676     -4.25512065914617      3.03086342953738
  H           8.01105502903560     -3.89804576402248      1.65677500613501
  H           6.45843152406946     -4.39030883732145      1.39829102601664
  H           7.58152224525444     -5.49544807620604      1.93855646646505
  N           7.74601475813923     -0.21809560138125      2.23148037835083
  H           7.88838037076247     -0.15869314610474      3.23846760378071
  H           8.53914014369387      0.21129692653375      1.69816563565494
  H           6.80381094339582      0.14383203234055      2.00316553731851
  H           7.79005059504228     -1.20720814544724      1.95473305427976
  N          14.43455728519763     -0.86194257711768      1.62678155778732
  H          14.88297593953744     -1.71737875956013      1.31225322370232
  H          14.60651954921361     -0.08347518356314      0.96329192436608
  H          14.74943173069592     -0.62504273705828      2.56051095618770
  H          13.33613626875919     -0.95364499721044      1.55063620684710
