! GFN2-xTB Opt
* xyz 0 1
  C       2.115427      0.184136     -0.295191
  O       1.369532     -0.483769     -1.125378
  O       2.525861     -0.359707      0.768408
  O       2.351271      1.417714     -0.599554
  C      -0.298717     -1.356431     -3.210373
  O       0.030082     -2.572410     -2.995710
  O      -1.005944     -0.759424     -2.232900
  O       0.162538     -0.588006     -4.109300
  C       1.012602      2.187592      2.305546
  O       0.334629      1.317208      1.546514
  O       1.537747      1.711358      3.355996
  O       1.162049      3.355582      1.814350
  O       3.188271     -0.492448      3.605501
  O       0.301695     -1.712869      2.723382
  O       2.021921      1.418374     -3.478892
  O      -0.154495     -2.881716      0.617086
  O      -0.220105      2.401190     -1.572514
  Mg      0.314187      0.772937     -2.515383
  Mg      0.838985      2.555191      0.021142
  Mg      0.079857     -2.026116     -1.056827
  Mg      1.471239     -0.148274      2.437249
  H       3.949440     -0.691693      3.045331
  H       3.335051      0.390807      3.978285
  H       0.069752     -2.267806      1.830188
  H      -0.502617     -1.634438      3.243199
  H       2.700069      1.475640     -2.786274
  H       2.261000      0.705441     -4.087147
  H      -0.378514     -3.807385      0.724752
  H      -1.121080      2.719639     -1.653319
*
--
! B3LYP D3BJ def2-SVP Opt RIJCOSX
%geom
  MaxIter 500
end
--
! B3LYP D3BJ def2-TZVP TightSCF Opt RIJCOSX
%geom
  MaxIter 500
end
